REMARK SMILES CNC(=O)Oc1cccc2c1OC(C)(C)O2
REMARK SMILES IDX 5 1 6 2 12 3 13 4 11 5 16 6 14 7 15 8 10 9 9 10 7 11 8 12
REMARK SMILES IDX 3 13 4 14 2 15 1 16
REMARK H PARENT 2 17
REMARK Flexibility Score: inf
ROOT
ATOM      1  O   UNL     1       1.651   0.265   0.940  1.00  0.00    -0.406 OA
ENDROOT
BRANCH   1   2
ATOM      2  C   UNL     1       0.521   0.870   0.500  1.00  0.00     0.178 A 
ATOM      3  O   UNL     1      -0.785  -1.190   0.403  1.00  0.00    -0.445 OA
ATOM      4  C   UNL     1      -2.166  -1.368   0.002  1.00  0.00     0.246 C 
ATOM      5  C   UNL     1      -0.632   0.154   0.251  1.00  0.00     0.209 A 
ATOM      6  O   UNL     1      -2.800  -0.122  -0.378  1.00  0.00    -0.449 OA
ATOM      7  C   UNL     1      -2.938  -1.962   1.180  1.00  0.00     0.106 C 
ATOM      8  C   UNL     1      -2.201  -2.313  -1.199  1.00  0.00     0.106 C 
ATOM      9  C   UNL     1      -1.782   0.764  -0.195  1.00  0.00     0.170 A 
ATOM     10  C   UNL     1      -1.843   2.124  -0.416  1.00  0.00     0.051 A 
ATOM     11  C   UNL     1       0.485   2.250   0.284  1.00  0.00     0.051 A 
ATOM     12  C   UNL     1      -0.690   2.873  -0.171  1.00  0.00     0.008 A 
ENDBRANCH   1   2
BRANCH   1  13
ATOM     13  C   UNL     1       2.525  -0.182  -0.073  1.00  0.00     0.412 C 
ATOM     14  O   UNL     1       2.297  -0.046  -1.272  1.00  0.00    -0.224 OA
ATOM     15  N   UNL     1       3.643  -0.782   0.468  1.00  0.00    -0.324 N 
ATOM     16  C   UNL     1       4.714  -1.337  -0.325  1.00  0.00     0.146 C 
ATOM     17  H   UNL     1       3.717  -0.836   1.479  1.00  0.00     0.166 HD
ENDBRANCH   1  13
TORSDOF 2
