REMARK SMILES CCOCn1c(-c2ccc(Cl)cc2)c(C#N)c(Br)c1C(F)(F)F
REMARK SMILES IDX 4 1 5 2 18 3 17 4 19 5 14 6 6 7 20 8 21 9 22 10 23 11 15 12
REMARK SMILES IDX 16 13 7 14 8 15 13 16 9 17 12 18 10 19 11 20 3 21 2 22 1 23
REMARK H PARENT
REMARK Flexibility Score: inf
ROOT
ATOM      1  C   UNL     1      -0.575   1.592   0.711  1.00  0.00     0.285 C 
ENDROOT
BRANCH   1   2
ATOM      2  N   UNL     1      -0.813   0.215   0.328  1.00  0.00    -0.311 N 
ATOM      3  Br  UNL     1      -3.205  -2.944  -0.522  1.00  0.00    -0.047 Br
ATOM      4  C   UNL     1      -1.869  -1.670  -0.184  1.00  0.00     0.066 A 
ATOM      5  C   UNL     1      -2.051  -0.356   0.186  1.00  0.00     0.141 A 
ATOM      6  C   UNL     1      -0.474  -1.898  -0.266  1.00  0.00     0.093 A 
ATOM      7  C   UNL     1       0.163  -0.715   0.056  1.00  0.00     0.070 A 
BRANCH   5   8
ATOM      8  C   UNL     1      -3.295   0.411   0.415  1.00  0.00     0.432 C 
ATOM      9  F   UNL     1      -4.442  -0.314   0.227  1.00  0.00    -0.165 F 
ATOM     10  F   UNL     1      -3.412   0.919   1.683  1.00  0.00    -0.165 F 
ATOM     11  F   UNL     1      -3.419   1.494  -0.414  1.00  0.00    -0.165 F 
ENDBRANCH   5   8
BRANCH   6  12
ATOM     12  C   UNL     1       0.192  -3.112  -0.613  1.00  0.00     0.103 C 
ATOM     13  N   UNL     1       0.736  -4.104  -0.896  1.00  0.00    -0.192 NA
ENDBRANCH   6  12
BRANCH   7  14
ATOM     14  C   UNL     1       1.570  -0.409   0.124  1.00  0.00    -0.000 A 
ATOM     15  C   UNL     1       2.237   0.064  -1.007  1.00  0.00     0.012 A 
ATOM     16  C   UNL     1       2.266  -0.586   1.320  1.00  0.00     0.012 A 
ATOM     17  C   UNL     1       3.599   0.359  -0.942  1.00  0.00     0.021 A 
ATOM     18  C   UNL     1       3.628  -0.290   1.385  1.00  0.00     0.021 A 
ATOM     19  C   UNL     1       4.294   0.182   0.254  1.00  0.00     0.041 A 
ATOM     20  Cl  UNL     1       5.974   0.547   0.336  1.00  0.00    -0.084 Cl
ENDBRANCH   7  14
ENDBRANCH   1   2
BRANCH   1  21
ATOM     21  O   UNL     1      -0.520   2.364  -0.481  1.00  0.00    -0.361 OA
BRANCH  21  22
ATOM     22  C   UNL     1      -0.317   3.741  -0.199  1.00  0.00     0.159 C 
ATOM     23  C   UNL     1      -0.267   4.510  -1.502  1.00  0.00     0.035 C 
ENDBRANCH  21  22
ENDBRANCH   1  21
TORSDOF 6
