REMARK SMILES CN/C(=N\[N+](=O)[O-])NCc1cnc(Cl)s1
REMARK SMILES IDX 8 1 2 2 4 3 3 4 1 5 9 8 10 9 14 10 13 11 15 12 12 13 11 14
REMARK SMILES IDX 5 15 7 16 6 17
REMARK H PARENT 8 6 2 7
REMARK Flexibility Score: inf
ROOT
ATOM      1  N   UNL     1      -0.410   0.245   0.112  1.00  0.00    -0.346 N 
ATOM      2  N   UNL     1      -2.340   1.555   0.301  1.00  0.00    -0.354 N 
ATOM      3  N   UNL     1      -2.487  -0.798  -0.194  1.00  0.00     0.100 NA
ATOM      4  C   UNL     1      -1.797   0.294   0.062  1.00  0.00     0.268 C 
ATOM      5  C   UNL     1      -1.623   2.778   0.586  1.00  0.00     0.143 C 
ATOM      6  H   UNL     1       0.106   1.098   0.302  1.00  0.00     0.164 HD
ATOM      7  H   UNL     1      -3.352   1.653   0.279  1.00  0.00     0.163 HD
ENDROOT
BRANCH   1   8
ATOM      8  C   UNL     1       0.375  -0.949  -0.102  1.00  0.00     0.164 C 
BRANCH   8   9
ATOM      9  C   UNL     1       1.840  -0.652   0.060  1.00  0.00     0.045 A 
ATOM     10  Cl  UNL     1       5.602   0.718  -0.783  1.00  0.00    -0.051 Cl
ATOM     11  C   UNL     1       4.124   0.065  -0.214  1.00  0.00     0.183 A 
ATOM     12  S   UNL     1       2.705   0.167  -1.174  1.00  0.00    -0.106 S 
ATOM     13  N   UNL     1       4.000  -0.530   0.952  1.00  0.00    -0.233 NA
ATOM     14  C   UNL     1       2.690  -0.940   1.107  1.00  0.00     0.130 A 
ENDBRANCH   8   9
ENDBRANCH   1   8
BRANCH   3  15
ATOM     15  N   UNL     1      -3.831  -0.677  -0.226  1.00  0.00     0.194 N 
ATOM     16  O   UNL     1      -4.378  -0.403  -1.306  1.00  0.00    -0.233 OA
ATOM     17  O   UNL     1      -4.470  -0.872   0.820  1.00  0.00    -0.233 OA
ENDBRANCH   3  15
TORSDOF 3
