REMARK SMILES COP(=S)(OC)Oc1ccc([N+](=O)[O-])c(C)c1
REMARK SMILES IDX 7 1 3 2 4 3 2 4 1 5 5 6 6 7 8 8 17 9 9 10 15 11 10 12 11 13
REMARK SMILES IDX 16 14 12 15 14 16 13 17
REMARK H PARENT
REMARK Flexibility Score: inf
ROOT
ATOM      1  O   UNL     1       1.593  -0.859   0.391  1.00  0.00    -0.424 OA
ENDROOT
BRANCH   1   2
ATOM      2  P   UNL     1       2.760   0.076  -0.237  1.00  0.00     0.380 P 
ATOM      3  S   UNL     1       2.662   0.448  -2.149  1.00  0.00     0.006 S 
BRANCH   2   4
ATOM      4  O   UNL     1       4.094  -0.709   0.268  1.00  0.00    -0.303 OA
ATOM      5  C   UNL     1       4.311  -2.055  -0.123  1.00  0.00     0.207 C 
ENDBRANCH   2   4
BRANCH   2   6
ATOM      6  O   UNL     1       2.752   1.352   0.773  1.00  0.00    -0.303 OA
ATOM      7  C   UNL     1       3.655   2.424   0.560  1.00  0.00     0.207 C 
ENDBRANCH   2   6
ENDBRANCH   1   2
BRANCH   1   8
ATOM      8  C   UNL     1       0.243  -0.663   0.275  1.00  0.00     0.129 A 
ATOM      9  C   UNL     1      -0.259   0.628   0.152  1.00  0.00     0.057 A 
ATOM     10  C   UNL     1      -0.616  -1.758   0.281  1.00  0.00     0.054 A 
ATOM     11  C   UNL     1      -1.635   0.827   0.035  1.00  0.00     0.030 A 
ATOM     12  C   UNL     1      -1.991  -1.559   0.163  1.00  0.00     0.090 A 
ATOM     13  C   UNL     1      -2.501  -0.267   0.040  1.00  0.00     0.272 A 
ATOM     14  C   UNL     1      -2.149   2.225  -0.095  1.00  0.00     0.052 C 
BRANCH  13  15
ATOM     15  N   UNL     1      -3.907  -0.087  -0.078  1.00  0.00     0.062 N 
ATOM     16  O   UNL     1      -4.649  -1.098  -0.068  1.00  0.00    -0.258 OA
ATOM     17  O   UNL     1      -4.362   1.075  -0.188  1.00  0.00    -0.258 OA
ENDBRANCH  13  15
ENDBRANCH   1   8
TORSDOF 5
