REMARK SMILES CCOC(=O)CC(SP(=S)(OC)OC)C(=O)OCC
REMARK SMILES IDX 6 1 7 2 8 3 9 4 10 5 11 6 12 7 13 8 14 9 15 10 16 11 17 12
REMARK SMILES IDX 18 13 19 14 4 15 5 16 3 17 2 18 1 19
REMARK H PARENT
REMARK Flexibility Score: inf
ROOT
ATOM      1  C   UNL     1       1.741   0.545  -0.645  1.00  0.00     0.149 C 
ENDROOT
BRANCH   1   2
ATOM      2  C   UNL     1       0.321   0.202  -0.189  1.00  0.00     0.177 C 
BRANCH   2   3
ATOM      3  S   UNL     1      -0.265  -1.353  -0.947  1.00  0.00    -0.054 SA
BRANCH   3   4
ATOM      4  P   UNL     1      -2.202  -1.657  -0.135  1.00  0.00     0.247 P 
ATOM      5  S   UNL     1      -3.053  -3.403  -0.408  1.00  0.00    -0.026 S 
BRANCH   4   6
ATOM      6  O   UNL     1      -3.145  -0.427  -0.656  1.00  0.00    -0.325 OA
ATOM      7  C   UNL     1      -3.509  -0.332  -2.024  1.00  0.00     0.204 C 
ENDBRANCH   4   6
BRANCH   4   8
ATOM      8  O   UNL     1      -2.138  -1.238   1.444  1.00  0.00    -0.325 OA
ATOM      9  C   UNL     1      -1.404  -2.028   2.366  1.00  0.00     0.204 C 
ENDBRANCH   4   8
ENDBRANCH   3   4
ENDBRANCH   2   3
BRANCH   2  10
ATOM     10  C   UNL     1      -0.625   1.331  -0.555  1.00  0.00     0.320 C 
ATOM     11  O   UNL     1      -0.819   1.761  -1.684  1.00  0.00    -0.251 OA
BRANCH  10  12
ATOM     12  O   UNL     1      -1.202   1.814   0.588  1.00  0.00    -0.465 OA
BRANCH  12  13
ATOM     13  C   UNL     1      -2.100   2.914   0.408  1.00  0.00     0.229 C 
ATOM     14  C   UNL     1      -2.650   3.327   1.757  1.00  0.00     0.049 C 
ENDBRANCH  12  13
ENDBRANCH  10  12
ENDBRANCH   2  10
ENDBRANCH   1   2
BRANCH   1  15
ATOM     15  C   UNL     1       2.812  -0.251   0.071  1.00  0.00     0.307 C 
ATOM     16  O   UNL     1       2.605  -1.138   0.888  1.00  0.00    -0.252 OA
BRANCH  15  17
ATOM     17  O   UNL     1       4.039   0.202  -0.324  1.00  0.00    -0.466 OA
BRANCH  17  18
ATOM     18  C   UNL     1       5.160  -0.440   0.293  1.00  0.00     0.229 C 
ATOM     19  C   UNL     1       6.436   0.172  -0.247  1.00  0.00     0.049 C 
ENDBRANCH  17  18
ENDBRANCH  15  17
ENDBRANCH   1  15
TORSDOF 11
