REMARK SMILES CCN(CC)c1nc(C)cc(OP(=S)(OC)OC)n1
REMARK SMILES IDX 7 1 19 2 6 3 8 4 11 5 10 6 9 7 12 8 13 9 14 10 15 11 16 12
REMARK SMILES IDX 17 13 18 14 3 15 2 16 1 17 4 18 5 19
REMARK H PARENT
REMARK Flexibility Score: inf
ROOT
ATOM      1  N   UNL     1      -2.291  -1.210  -0.233  1.00  0.00    -0.218 NA
ATOM      2  N   UNL     1      -0.243   0.023   0.072  1.00  0.00    -0.177 NA
ATOM      3  C   UNL     1      -1.581  -0.083  -0.035  1.00  0.00     0.228 A 
ATOM      4  C   UNL     1      -1.555  -2.337  -0.329  1.00  0.00     0.047 A 
ATOM      5  C   UNL     1       0.431  -1.142  -0.033  1.00  0.00     0.226 A 
ATOM      6  C   UNL     1      -0.179  -2.364  -0.236  1.00  0.00     0.092 A 
ATOM      7  C   UNL     1      -2.303  -3.609  -0.548  1.00  0.00     0.067 C 
ENDROOT
BRANCH   5   8
ATOM      8  O   UNL     1       1.795  -1.085   0.070  1.00  0.00    -0.405 OA
BRANCH   8   9
ATOM      9  P   UNL     1       2.689   0.246   0.307  1.00  0.00     0.381 P 
ATOM     10  S   UNL     1       2.495   1.147   2.026  1.00  0.00     0.006 S 
BRANCH   9  11
ATOM     11  O   UNL     1       2.293   1.126  -1.005  1.00  0.00    -0.303 OA
ATOM     12  C   UNL     1       2.870   2.406  -1.197  1.00  0.00     0.207 C 
ENDBRANCH   9  11
BRANCH   9  13
ATOM     13  O   UNL     1       4.177  -0.267  -0.103  1.00  0.00    -0.303 OA
ATOM     14  C   UNL     1       4.770  -1.344   0.602  1.00  0.00     0.207 C 
ENDBRANCH   9  13
ENDBRANCH   8   9
ENDBRANCH   5   8
BRANCH   3  15
ATOM     15  N   UNL     1      -2.319   1.117   0.070  1.00  0.00    -0.341 N 
BRANCH  15  16
ATOM     16  C   UNL     1      -3.763   1.100  -0.033  1.00  0.00     0.116 C 
ATOM     17  C   UNL     1      -4.383   0.886   1.335  1.00  0.00     0.027 C 
ENDBRANCH  15  16
BRANCH  15  18
ATOM     18  C   UNL     1      -1.640   2.376   0.298  1.00  0.00     0.116 C 
ATOM     19  C   UNL     1      -1.263   3.013  -1.026  1.00  0.00     0.027 C 
ENDBRANCH  15  18
ENDBRANCH   3  15
TORSDOF 7
