REMARK SMILES CC(COc1ccc(Oc2ccccc2)cc1)Oc1ccccn1
REMARK SMILES IDX 3 1 4 2 5 3 6 4 17 5 7 6 16 7 8 8 9 9 10 10 11 11 15 12
REMARK SMILES IDX 12 13 14 14 13 15 2 16 1 17 18 18 19 19 24 20 20 21 23 22
REMARK SMILES IDX 21 23 22 24
REMARK H PARENT
REMARK Flexibility Score: inf
ROOT
ATOM      1  C   UNL     1      -1.603  -1.814  -0.255  1.00  0.00     0.274 C 
ENDROOT
BRANCH   1   2
ATOM      2  O   UNL     1      -1.256  -0.785  -1.175  1.00  0.00    -0.490 OA
BRANCH   2   3
ATOM      3  C   UNL     1       0.051  -0.376  -1.177  1.00  0.00     0.119 A 
ATOM      4  C   UNL     1       1.056  -1.276  -0.838  1.00  0.00     0.050 A 
ATOM      5  C   UNL     1       0.362   0.937  -1.516  1.00  0.00     0.050 A 
ATOM      6  C   UNL     1       2.387  -0.859  -0.840  1.00  0.00     0.051 A 
ATOM      7  C   UNL     1       1.693   1.354  -1.517  1.00  0.00     0.051 A 
ATOM      8  C   UNL     1       2.705   0.456  -1.179  1.00  0.00     0.127 A 
BRANCH   8   9
ATOM      9  O   UNL     1       4.004   0.864  -1.179  1.00  0.00    -0.457 OA
BRANCH   9  10
ATOM     10  C   UNL     1       4.847   0.540  -0.153  1.00  0.00     0.127 A 
ATOM     11  C   UNL     1       4.415   0.669   1.164  1.00  0.00     0.047 A 
ATOM     12  C   UNL     1       6.132   0.082  -0.431  1.00  0.00     0.047 A 
ATOM     13  C   UNL     1       5.275   0.339   2.211  1.00  0.00     0.004 A 
ATOM     14  C   UNL     1       6.992  -0.249   0.616  1.00  0.00     0.004 A 
ATOM     15  C   UNL     1       6.563  -0.121   1.937  1.00  0.00     0.000 A 
ENDBRANCH   9  10
ENDBRANCH   8   9
ENDBRANCH   2   3
ENDBRANCH   1   2
BRANCH   1  16
ATOM     16  C   UNL     1      -3.065  -1.651   0.141  1.00  0.00     0.209 C 
ATOM     17  C   UNL     1      -3.490  -2.707   1.149  1.00  0.00     0.057 C 
BRANCH  16  18
ATOM     18  O   UNL     1      -3.228  -0.360   0.728  1.00  0.00    -0.471 OA
BRANCH  18  19
ATOM     19  C   UNL     1      -4.445   0.241   0.557  1.00  0.00     0.213 A 
ATOM     20  N   UNL     1      -5.375  -0.442  -0.150  1.00  0.00    -0.222 NA
ATOM     21  C   UNL     1      -4.660   1.496   1.106  1.00  0.00     0.068 A 
ATOM     22  C   UNL     1      -6.572   0.163  -0.312  1.00  0.00     0.115 A 
ATOM     23  C   UNL     1      -5.905   2.086   0.918  1.00  0.00     0.007 A 
ATOM     24  C   UNL     1      -6.885   1.414   0.197  1.00  0.00     0.020 A 
ENDBRANCH  18  19
ENDBRANCH  16  18
ENDBRANCH   1  16
TORSDOF 7
