REMARK SMILES COP(=S)(OC)Oc1ccc(Sc2ccc(OP(=S)(OC)OC)cc2)cc1
REMARK SMILES IDX 12 1 11 2 10 3 26 4 9 5 27 6 8 7 7 8 3 9 4 10 2 11 1 12 5 13
REMARK SMILES IDX 6 14 13 15 14 16 25 17 15 18 24 19 16 20 17 21 18 22 19 23
REMARK SMILES IDX 20 24 21 25 22 26 23 27
REMARK H PARENT
REMARK Flexibility Score: inf
ROOT
ATOM      1  S   UNL     1       0.003   3.700  -0.000  1.00  0.00    -0.090 SA
ENDROOT
BRANCH   1   2
ATOM      2  C   UNL     1      -1.370   2.567  -0.158  1.00  0.00     0.012 A 
ATOM      3  C   UNL     1      -2.166   2.592  -1.303  1.00  0.00     0.019 A 
ATOM      4  C   UNL     1      -1.645   1.658   0.863  1.00  0.00     0.019 A 
ATOM      5  C   UNL     1      -3.238   1.708  -1.427  1.00  0.00     0.048 A 
ATOM      6  C   UNL     1      -2.717   0.774   0.740  1.00  0.00     0.048 A 
ATOM      7  C   UNL     1      -3.513   0.799  -0.405  1.00  0.00     0.129 A 
BRANCH   7   8
ATOM      8  O   UNL     1      -4.559  -0.064  -0.526  1.00  0.00    -0.424 OA
BRANCH   8   9
ATOM      9  P   UNL     1      -4.669  -1.553   0.118  1.00  0.00     0.380 P 
ATOM     10  S   UNL     1      -3.205  -2.785  -0.258  1.00  0.00     0.006 S 
BRANCH   9  11
ATOM     11  O   UNL     1      -4.985  -1.223   1.679  1.00  0.00    -0.303 OA
ATOM     12  C   UNL     1      -5.567  -2.217   2.505  1.00  0.00     0.207 C 
ENDBRANCH   9  11
BRANCH   9  13
ATOM     13  O   UNL     1      -6.140  -2.017  -0.404  1.00  0.00    -0.303 OA
ATOM     14  C   UNL     1      -6.405  -2.090  -1.795  1.00  0.00     0.207 C 
ENDBRANCH   9  13
ENDBRANCH   8   9
ENDBRANCH   7   8
ENDBRANCH   1   2
BRANCH   1  15
ATOM     15  C   UNL     1       1.371   2.570   0.158  1.00  0.00     0.012 A 
ATOM     16  C   UNL     1       2.168   2.594   1.302  1.00  0.00     0.019 A 
ATOM     17  C   UNL     1       1.646   1.660  -0.864  1.00  0.00     0.019 A 
ATOM     18  C   UNL     1       3.239   1.710   1.426  1.00  0.00     0.048 A 
ATOM     19  C   UNL     1       2.717   0.775  -0.740  1.00  0.00     0.048 A 
ATOM     20  C   UNL     1       3.514   0.800   0.405  1.00  0.00     0.129 A 
BRANCH  20  21
ATOM     21  O   UNL     1       4.565  -0.069   0.526  1.00  0.00    -0.424 OA
BRANCH  21  22
ATOM     22  P   UNL     1       4.668  -1.553  -0.117  1.00  0.00     0.380 P 
ATOM     23  S   UNL     1       3.202  -2.784   0.260  1.00  0.00     0.006 S 
BRANCH  22  24
ATOM     24  O   UNL     1       6.139  -2.018   0.404  1.00  0.00    -0.303 OA
ATOM     25  C   UNL     1       6.404  -2.091   1.795  1.00  0.00     0.207 C 
ENDBRANCH  22  24
BRANCH  22  26
ATOM     26  O   UNL     1       4.984  -1.225  -1.679  1.00  0.00    -0.303 OA
ATOM     27  C   UNL     1       5.560  -2.222  -2.506  1.00  0.00     0.207 C 
ENDBRANCH  22  26
ENDBRANCH  21  22
ENDBRANCH  20  21
ENDBRANCH   1  15
TORSDOF 10
