REMARK  Name = 656612
REMARK  7 active torsions:
REMARK  status: ('A' for Active; 'I' for Inactive)
REMARK    1  A    between atoms: O_7  and  C_15
REMARK    2  A    between atoms: O_7  and  C_17
REMARK    3  A    between atoms: C_9  and  C_12
REMARK    4  A    between atoms: C_9  and  C_13
REMARK    5  A    between atoms: C_10  and  C_15
REMARK    6  A    between atoms: C_11  and  C_14
REMARK    7  A    between atoms: C_17  and  C_18
REMARK                            x       y       z     vdW  Elec       q    Type
REMARK                         _______ _______ _______ _____ _____    ______ ____
ROOT
ATOM      1  O   UNL     1      -0.232   0.347  -0.398  0.00  0.00    +0.000 OA
ENDROOT
BRANCH   1   3
ATOM      2  O   UNL     1       1.252   0.683  -2.140  0.00  0.00    +0.000 OA
ATOM      3  C   UNL     1       1.003   0.513  -0.955  0.00  0.00    +0.000 C 
BRANCH   3   5
ATOM      4  C   UNL     1       2.654  -0.850   0.488  0.00  0.00    +0.000 C 
ATOM      5  C   UNL     1       2.080   0.464   0.067  0.00  0.00    +0.000 C 
ATOM      6  C   UNL     1       3.457   0.081  -0.371  0.00  0.00    +0.000 C 
ATOM      7  C   UNL     1       2.154  -2.106  -0.145  0.00  0.00    +0.000 C 
ATOM      8  C   UNL     1       2.999  -1.008   1.932  0.00  0.00    +0.000 C 
BRANCH   6  11
ATOM      9 CL   UNL     1       6.365  -1.168  -0.240  0.00  0.00    +0.000 Cl
ATOM     10 CL   UNL     1       7.057   1.420   1.001  0.00  0.00    +0.000 Cl
ATOM     11  C   UNL     1       4.586   0.810   0.188  0.00  0.00    +0.000 C 
ATOM     12  C   UNL     1       5.857   0.392   0.299  0.00  0.00    +0.000 C 
ENDBRANCH   6  11
ENDBRANCH   3   5
ENDBRANCH   1   3
BRANCH   1  13
ATOM     13  C   UNL     1      -1.328   0.379  -1.304  0.00  0.00    +0.000 C 
BRANCH  13  18
ATOM     14  F   UNL     1      -2.451  -2.167  -0.831  0.00  0.00    +0.000 F 
ATOM     15  F   UNL     1      -2.810   2.529  -0.231  0.00  0.00    +0.000 F 
ATOM     16  F   UNL     1      -5.134   2.169   1.147  0.00  0.00    +0.000 F 
ATOM     17  F   UNL     1      -4.776  -2.515   0.550  0.00  0.00    +0.000 F 
ATOM     18  C   UNL     1      -2.600   0.186  -0.550  0.00  0.00    +0.000 A 
ATOM     19  C   UNL     1      -3.103  -1.100  -0.349  0.00  0.00    +0.000 A 
ATOM     20  C   UNL     1      -3.286   1.290  -0.044  0.00  0.00    +0.000 A 
ATOM     21  C   UNL     1      -4.475   1.109   0.663  0.00  0.00    +0.000 A 
ATOM     22  C   UNL     1      -4.292  -1.281   0.358  0.00  0.00    +0.000 A 
ATOM     23  C   UNL     1      -4.978  -0.177   0.863  0.00  0.00    +0.000 A 
ENDBRANCH  13  18
ENDBRANCH   1  13
TORSDOF 5
